6    
Iteration 0 Energy -409.75638524
N       -4.8463800000    1.7610900000    0.0000000000
N       -3.4688800000    1.7841500000    0.0000000000
O       -2.8238500000    2.9316900000    0.0000000000
O       -2.8505500000    0.7627600000    0.0000000000
O       -5.4647100000    2.7824800000    0.0000000000
O       -5.4914100000    0.6135500000    0.0000000000
6    
Iteration 1 Energy -409.78329074
N       -4.8712618132    1.7491447024    0.0000000000
N       -3.4269652735    1.7413737504    0.0000000000
O       -3.0010127127    2.9613824425    0.0000000000
O       -2.7838371457    0.7022305880    0.0000000000
O       -5.3693654103    2.8650860578    0.0000000000
O       -5.4933376445    0.6165024588    0.0000000000
6    
Iteration 2 Energy -409.80697311
N       -4.9573789856    1.7833569151   -0.0000000000
N       -3.3638825003    1.8067573031    0.0000000000
O       -2.8163206043    2.9182968461    0.0000000000
O       -2.8701495051    0.6483314972    0.0000000000
O       -5.5984516556    2.8706048926   -0.0000000000
O       -5.3404417017    0.6092269215   -0.0000000000
6    
Iteration 3 Energy -409.81402743
N       -5.0231039300    1.7085411717   -0.0000000000
N       -3.3259831589    1.8392305512    0.0000000000
O       -2.8181500769    2.9331238407    0.0000000000
O       -2.8059073158    0.6970821143    0.0000000000
O       -5.5028987535    2.8705561294   -0.0000000000
O       -5.4693537299    0.5888270481   -0.0000000000
6    
Iteration 4 Energy -409.81901065
N       -5.0303635649    1.7430398731   -0.0000000000
N       -3.2601097136    1.7916233024    0.0000000000
O       -2.8626629485    2.9299608224    0.0000000000
O       -2.7247185515    0.6726232283    0.0000000000
O       -5.5612144957    2.8627578739   -0.0000000000
O       -5.5046254019    0.6380581583   -0.0000000000
6    
Iteration 5 Energy -409.82118530
N       -5.0465888951    1.7442587885    0.0000000000
N       -3.2576732920    1.7923878761    0.0000000000
O       -2.8424403162    2.9459627068   -0.0000000000
O       -2.7379330526    0.6801891660   -0.0000000000
O       -5.5457617443    2.8663272220   -0.0000000000
O       -5.5142394761    0.6081188319   -0.0000000000
6    
Iteration 6 Energy -409.82151517
N       -5.0631699189    1.7431930149   -0.0000000000
N       -3.2507127942    1.7956631215   -0.0000000000
O       -2.8285220380    2.9431517467    0.0000000000
O       -2.7382201982    0.6846634765    0.0000000000
O       -5.5519894571    2.8656603873    0.0000000000
O       -5.5128801573    0.6040526056    0.0000000000
6    
Iteration 7 Energy -409.82157775
N       -5.0691619773    1.7439381364    0.0000000000
N       -3.2468524666    1.7972419649    0.0000000000
O       -2.8167317822    2.9423273947   -0.0000000000
O       -2.7372970050    0.6853866874    0.0000000000
O       -5.5633589185    2.8629080461   -0.0000000000
O       -5.5126826152    0.6038336540   -0.0000000000
6    
Iteration 8 Energy -409.82159278
N       -5.0712828979    1.7449814133    0.0000000000
N       -3.2447475813    1.7987645222   -0.0000000000
O       -2.8090410735    2.9420424957    0.0000000000
O       -2.7383569231    0.6850300319    0.0000000000
O       -5.5723919157    2.8609382671    0.0000000000
O       -5.5106883197    0.6033433327    0.0000000000
6    
Iteration 9 Energy -409.82159387
N       -5.0711945362    1.7452617756   -0.0000000000
N       -3.2444746347    1.7993916583    0.0000000000
O       -2.8076614789    2.9422672620   -0.0000000000
O       -2.7395563340    0.6848494875   -0.0000000000
O       -5.5746630396    2.8603337368   -0.0000000000
O       -5.5090728256    0.6028598081    0.0000000000
6    
Iteration 10 Energy -409.82159401
N       -5.0709629182    1.7452207235    0.0000000000
N       -3.2445759157    1.7997341378   -0.0000000000
O       -2.8076813622    2.9425640322    0.0000000000
O       -2.7400545910    0.6850359079    0.0000000000
O       -5.5753641602    2.8599358413   -0.0000000000
O       -5.5080214058    0.6024337984   -0.0000000000
