6    
Iteration 0 Energy -407.73108626
N       -4.8463800000    1.7610900000    0.0000000000
N       -3.4688800000    1.7841500000    0.0000000000
O       -2.8238500000    2.9316900000    0.0000000000
O       -2.8505500000    0.7627600000    0.0000000000
O       -5.4647100000    2.7824800000    0.0000000000
O       -5.4914100000    0.6135500000    0.0000000000
6    
Iteration 1 Energy -407.75091767
N       -4.8596948668    1.7358250128    0.0000000000
N       -3.4505677057    1.7588496815    0.0000000000
O       -2.9886649888    2.9475423180    0.0000000000
O       -2.8311160647    0.7389318718   -0.0000000000
O       -5.3327644486    2.8313421715   -0.0000000000
O       -5.4829719254    0.6232289444   -0.0000000000
6    
Iteration 2 Energy -407.76253983
N       -4.9158221085    1.7820681500   -0.0000000000
N       -3.3908516428    1.8065723015    0.0000000000
O       -2.9134831029    2.8614784068    0.0000000000
O       -2.9676149232    0.6939992080   -0.0000000000
O       -5.5087691336    2.8164423510   -0.0000000000
O       -5.2492390886    0.6751595825   -0.0000000000
6    
Iteration 3 Energy -407.77505049
N       -4.9445159941    1.7319129388    0.0000000000
N       -3.3854571634    1.8114299332    0.0000000000
O       -2.8837881364    2.8971799311    0.0000000000
O       -2.8558171558    0.7396243128   -0.0000000000
O       -5.4468394983    2.8187134336   -0.0000000000
O       -5.4293620511    0.6368594502   -0.0000000000
6    
Iteration 4 Energy -407.77279192
N       -4.9321953018    1.7728378090   -0.0000000000
N       -3.3481014792    1.7574776181   -0.0000000000
O       -2.9606577320    2.8976611268    0.0000000000
O       -2.7914364470    0.6954766847    0.0000000000
O       -5.4868808671    2.8350198121    0.0000000000
O       -5.4265081718    0.6772469485   -0.0000000000
6    
Iteration 5 Energy -407.77731412
N       -4.9545705255    1.7501461624    0.0000000000
N       -3.3605179984    1.7936357765    0.0000000000
O       -2.9101367417    2.8977145480    0.0000000000
O       -2.8435082577    0.7146957145   -0.0000000000
O       -5.4683654350    2.8313237003   -0.0000000000
O       -5.4086810403    0.6482040970   -0.0000000000
6    
Iteration 6 Energy -407.77742616
N       -4.9595412522    1.7500078896   -0.0000000000
N       -3.3554850138    1.7950204442   -0.0000000000
O       -2.9059956787    2.8985362342    0.0000000000
O       -2.8447707839    0.7149931503    0.0000000000
O       -5.4701705715    2.8302600915    0.0000000000
O       -5.4098166977    0.6469021881    0.0000000000
6    
Iteration 7 Energy -407.77748808
N       -4.9669528519    1.7508995341    0.0000000000
N       -3.3485573937    1.7948978973    0.0000000000
O       -2.9002630345    2.8996059469   -0.0000000000
O       -2.8423619731    0.7154297670   -0.0000000000
O       -5.4742736300    2.8296892523   -0.0000000000
O       -5.4133711131    0.6451975993   -0.0000000000
6    
Iteration 8 Energy -407.77748900
N       -4.9674589458    1.7505478102   -0.0000000000
N       -3.3478025060    1.7946701414   -0.0000000000
O       -2.9004093920    2.8995725401    0.0000000000
O       -2.8407659507    0.7157161377    0.0000000000
O       -5.4743805715    2.8294564374    0.0000000000
O       -5.4149626301    0.6457569296    0.0000000000
