3    
Iteration 0 Energy -203.88269537
N       -4.3953900000    1.8738000000    0.0000000000
O       -3.9097800000    3.0952000000    0.0000000000
O       -3.6559400000    0.9381000000    0.0000000000
3    
Iteration 1 Energy -203.90135451
N       -4.2731864772    1.9029203622    0.0000000000
O       -3.9775263992    3.1357172424    0.0000000000
O       -3.7103971236    0.8684623954   -0.0000000000
3    
Iteration 2 Energy -203.90605961
N       -4.2574632143    1.9251483177    0.0000000000
O       -3.9865706320    3.0897083650   -0.0000000000
O       -3.7170761535    0.8922433170    0.0000000000
3    
Iteration 3 Energy -203.90703072
N       -4.2751641681    1.9280651492   -0.0000000000
O       -3.9793213333    3.0849533047   -0.0000000000
O       -3.7066244985    0.8940815458    0.0000000000
3    
Iteration 4 Energy -203.90715133
N       -4.2777929146    1.9321401857    0.0000000000
O       -3.9794107437    3.0834369060   -0.0000000000
O       -3.7039063410    0.8915229081    0.0000000000
3    
Iteration 5 Energy -203.90715541
N       -4.2780118820    1.9322634655    0.0000000000
O       -3.9795008924    3.0847533191   -0.0000000000
O       -3.7035972246    0.8900832151    0.0000000000
3    
Iteration 6 Energy -203.90715593
N       -4.2778729283    1.9324760637    0.0000000000
O       -3.9795890554    3.0843759108   -0.0000000000
O       -3.7036480151    0.8902480251    0.0000000000
