3    
Iteration 0 Energy -204.88465567
N       -4.3953900000    1.8738000000    0.0000000000
O       -3.9097800000    3.0952000000    0.0000000000
O       -3.6559400000    0.9381000000    0.0000000000
3    
Iteration 1 Energy -204.89765131
N       -4.2900892798    1.9064670758   -0.0000000000
O       -3.9736393161    3.1563963025   -0.0000000000
O       -3.6976662175    0.8444111488   -0.0000000000
3    
Iteration 2 Energy -204.90066707
N       -4.2923128122    1.9221009406    0.0000000000
O       -3.9747655100    3.1269562511   -0.0000000000
O       -3.6938544270    0.8572350328    0.0000000000
3    
Iteration 3 Energy -204.90103832
N       -4.3009721535    1.9288997096    0.0000000000
O       -3.9721551711    3.1110343539   -0.0000000000
O       -3.6872937692    0.8646439151    0.0000000000
3    
Iteration 4 Energy -204.90107071
N       -4.3026183215    1.9271925406    0.0000000000
O       -3.9718302097    3.1134848616   -0.0000000000
O       -3.6858913640    0.8631754426    0.0000000000
3    
Iteration 5 Energy -204.90107312
N       -4.3027080961    1.9269886184    0.0000000000
O       -3.9727219227    3.1135054546   -0.0000000000
O       -3.6848031025    0.8623404057    0.0000000000
3    
Iteration 6 Energy -204.90107333
N       -4.3026465039    1.9265167456    0.0000000000
O       -3.9737124410    3.1131432574   -0.0000000000
O       -3.6837389774    0.8619352874    0.0000000000
