6    
Iteration 0 Energy -407.73108626
N       -4.8463800000    1.7610900000    0.0000000000
N       -3.4688800000    1.7841500000    0.0000000000
O       -2.8238500000    2.9316900000    0.0000000000
O       -2.8505500000    0.7627600000    0.0000000000
O       -5.4647100000    2.7824800000    0.0000000000
O       -5.4914100000    0.6135500000    0.0000000000
6    
Iteration 1 Energy -407.75091767
N       -4.8596948668    1.7358250128    0.0000000000
N       -3.4505677057    1.7588496815   -0.0000000000
O       -2.9886649888    2.9475423180    0.0000000000
O       -2.8311160647    0.7389318718   -0.0000000000
O       -5.3327644486    2.8313421715    0.0000000000
O       -5.4829719254    0.6232289444   -0.0000000000
6    
Iteration 2 Energy -407.76253983
N       -4.9158221085    1.7820681500   -0.0000000000
N       -3.3908516429    1.8065723015   -0.0000000000
O       -2.9134831030    2.8614784069    0.0000000000
O       -2.9676149233    0.6939992080   -0.0000000000
O       -5.5087691337    2.8164423510    0.0000000000
O       -5.2492390887    0.6751595824   -0.0000000000
6    
Iteration 3 Energy -407.77505049
N       -4.9445159942    1.7319129387   -0.0000000000
N       -3.3854571635    1.8114299333    0.0000000000
O       -2.8837881365    2.8971799312    0.0000000000
O       -2.8558171560    0.7396243128   -0.0000000000
O       -5.4468394985    2.8187134336    0.0000000000
O       -5.4293620512    0.6368594502   -0.0000000000
6    
Iteration 4 Energy -407.77279192
N       -4.9321953019    1.7728378090    0.0000000000
N       -3.3481014793    1.7574776182   -0.0000000000
O       -2.9606577322    2.8976611269    0.0000000000
O       -2.7914364471    0.6954766849   -0.0000000000
O       -5.4868808673    2.8350198121   -0.0000000000
O       -5.4265081719    0.6772469484   -0.0000000000
6    
Iteration 5 Energy -407.77731412
N       -4.9545705256    1.7501461624   -0.0000000000
N       -3.3605179986    1.7936357766   -0.0000000000
O       -2.9101367419    2.8977145482    0.0000000000
O       -2.8435082578    0.7146957147   -0.0000000000
O       -5.4683654352    2.8313237003    0.0000000000
O       -5.4086810403    0.6482040970   -0.0000000000
6    
Iteration 6 Energy -407.77742616
N       -4.9595412521    1.7500078898    0.0000000000
N       -3.3554850138    1.7950204442    0.0000000000
O       -2.9059956785    2.8985362342   -0.0000000000
O       -2.8447707840    0.7149931503    0.0000000000
O       -5.4701705713    2.8302600917   -0.0000000000
O       -5.4098166978    0.6469021884   -0.0000000000
6    
Iteration 7 Energy -407.77748808
N       -4.9669528518    1.7508995346   -0.0000000000
N       -3.3485573935    1.7948978973   -0.0000000000
O       -2.9002630341    2.8996059469    0.0000000000
O       -2.8423619732    0.7154297670    0.0000000000
O       -5.4742736296    2.8296892529    0.0000000000
O       -5.4133711133    0.6451975999    0.0000000000
6    
Iteration 8 Energy -407.77748900
N       -4.9674589454    1.7505478106    0.0000000000
N       -3.3478025057    1.7946701415    0.0000000000
O       -2.9004093914    2.8995725401   -0.0000000000
O       -2.8407659505    0.7157161377   -0.0000000000
O       -5.4743805710    2.8294564378   -0.0000000000
O       -5.4149626300    0.6457569300   -0.0000000000
